  340
 
C       5.000039   14.871549    0.718454
C       5.000039   17.351511    0.717183
C       5.000039   19.829726    0.717123
C       5.000039   22.308410    0.717416
C       5.000039   24.787529    0.717416
C       5.000039   27.266215    0.717123
C       5.000039   29.744432    0.717184
C       5.000039   32.224440    0.718454
H       5.000039   12.681225    0.883975
H       5.000039   34.414762    0.883975
C       5.000039   13.633695    1.437103
C       5.000039   16.111342    1.434400
C       5.000039   18.590361    1.433977
C       5.000039   21.069483    1.434272
C       5.000039   23.547969    1.434498
C       5.000039   26.026456    1.434272
C       5.000039   28.505579    1.433977
C       5.000039   30.984645    1.434399
C       5.000039   33.462298    1.437103
C       5.000039   13.633759    2.866061
C       5.000039   16.111281    2.868766
C       5.000039   18.590099    2.869183
C       5.000039   21.069467    2.868892
C       5.000039   23.547969    2.868666
C       5.000039   26.026472    2.868892
C       5.000039   28.505840    2.869183
C       5.000039   30.984705    2.868767
C       5.000039   33.462234    2.866061
H       5.000039   12.681226    3.419186
H       5.000039   34.414762    3.419186
C       5.000039   14.871551    3.584485
C       5.000039   17.351648    3.585730
C       5.000039   19.829857    3.586248
C       5.000039   22.308418    3.585765
C       5.000039   24.787521    3.585765
C       5.000039   27.266084    3.586248
C       5.000039   29.744295    3.585730
C       5.000039   32.224438    3.584485
C       5.000039   14.871030    5.021928
C       5.000039   17.351281    5.020603
C       5.000039   19.829554    5.020081
C       5.000039   22.308202    5.020563
C       5.000039   24.787737    5.020563
C       5.000039   27.266387    5.020081
C       5.000039   29.744662    5.020603
C       5.000039   32.224959    5.021928
H       5.000039   12.681236    5.187140
H       5.000039   34.414751    5.187140
C       5.000039   13.634036    5.739249
C       5.000039   16.111646    5.737192
C       5.000039   18.590335    5.737026
C       5.000039   21.069722    5.737484
C       5.000039   23.547969    5.738000
C       5.000039   26.026216    5.737484
C       5.000039   28.505604    5.737026
C       5.000039   30.984340    5.737191
C       5.000039   33.461956    5.739250
C       5.000039   13.634608    7.171530
C       5.000039   16.111630    7.173621
C       5.000039   18.587520    7.173097
C       5.000039   21.069516    7.172050
C       5.000039   23.547969    7.171486
C       5.000039   26.026423    7.172050
C       5.000039   28.508420    7.173097
C       5.000039   30.984358    7.173621
C       5.000039   33.461385    7.171530
H       5.000039   12.681137    7.722807
H       5.000039   34.414850    7.722807
C       5.000039   14.870752    7.887761
C       5.000039   17.352179    7.887156
C       5.000039   19.830634    7.891869
C       5.000039   22.308343    7.889181
C       5.000039   24.787596    7.889181
C       5.000039   27.265306    7.891869
C       5.000039   29.743764    7.887155
C       5.000039   32.225237    7.887761
H       5.000039   14.872446    8.990839
H       5.000039   17.350758    8.990563
H       5.000039   29.745183    8.990563
H       5.000039   32.223543    8.990839
C       5.000039   19.831639    9.321879
C       5.000039   22.308484    9.323375
C       5.000039   24.787455    9.323375
C       5.000039   27.264304    9.321880
H       5.000039   18.878467    9.874070
H       5.000039   28.217520    9.874069
C       5.000039   21.067945   10.039588
C       5.000039   23.547969   10.041167
C       5.000039   26.027994   10.039588
C       5.000039   21.068628   11.476140
C       5.000039   23.547969   11.474616
C       5.000039   26.027311   11.476140
H       5.000039   18.878038   11.641897
H       5.000039   28.217949   11.641898
C       5.000039   19.830329   12.195394
C       5.000039   22.308175   12.192213
C       5.000039   24.787764   12.192213
C       5.000039   27.265613   12.195393
C       5.000039   19.830243   13.623554
C       5.000039   22.308177   13.626737
C       5.000039   24.787762   13.626737
C       5.000039   27.265700   13.623555
H       5.000039   18.878050   14.177104
H       5.000039   28.217937   14.177103
C       5.000039   21.068658   14.342989
C       5.000039   23.547969   14.344460
C       5.000039   26.027281   14.342989
C       5.000039   21.068663   15.779142
C       5.000039   23.547969   15.777673
C       5.000039   26.027276   15.779142
H       5.000039   18.878049   15.945034
H       5.000039   28.217938   15.945035
C       5.000039   19.830250   16.498622
C       5.000039   22.308173   16.495416
C       5.000039   24.787766   16.495416
C       5.000039   27.265693   16.498621
C       5.000039   19.830243   17.926685
C       5.000039   22.308175   17.929889
C       5.000039   24.787764   17.929889
C       5.000039   27.265699   17.926686
H       5.000039   18.878048   18.480232
H       5.000039   28.217939   18.480231
C       5.000039   21.068665   18.646179
C       5.000039   23.547969   18.647636
C       5.000039   26.027275   18.646179
C       5.000039   21.068670   20.082241
C       5.000039   23.547969   20.080780
C       5.000039   26.027269   20.082241
H       5.000039   18.878048   20.248220
H       5.000039   28.217939   20.248221
C       5.000039   19.830243   20.801770
C       5.000039   22.308173   20.798558
C       5.000039   24.787766   20.798558
C       5.000039   27.265700   20.801769
C       5.000039   19.830243   22.229860
C       5.000039   22.308173   22.233066
C       5.000039   24.787765   22.233066
C       5.000039   27.265700   22.229860
H       5.000039   18.878049   22.783421
H       5.000039   28.217938   22.783420
C       5.000039   21.068669   22.949334
C       5.000039   23.547969   22.950794
C       5.000039   26.027270   22.949334
C       5.000039   21.068668   24.385454
C       5.000039   23.547969   24.383996
C       5.000039   26.027271   24.385454
H       5.000039   18.878049   24.551348
H       5.000039   28.217937   24.551349
C       5.000039   19.830240   25.104966
C       5.000039   22.308172   25.101762
C       5.000039   24.787767   25.101762
C       5.000039   27.265703   25.104965
C       5.000039   19.830241   26.533002
C       5.000039   22.308172   26.536212
C       5.000039   24.787767   26.536212
C       5.000039   27.265702   26.533003
H       5.000039   18.878048   27.086548
H       5.000039   28.217939   27.086547
C       5.000039   21.068672   27.252507
C       5.000039   23.547969   27.253966
C       5.000039   26.027267   27.252507
C       5.000039   21.068670   28.688587
C       5.000039   23.547969   28.687128
C       5.000039   26.027269   28.688587
H       5.000039   18.878047   28.854535
H       5.000039   28.217940   28.854536
C       5.000039   19.830242   29.408084
C       5.000039   22.308173   29.404864
C       5.000039   24.787766   29.404864
C       5.000039   27.265701   29.408083
C       5.000039   19.830242   30.836187
C       5.000039   22.308173   30.839407
C       5.000039   24.787766   30.839407
C       5.000039   27.265701   30.836188
H       5.000039   18.878047   31.389737
H       5.000039   28.217940   31.389736
C       5.000039   21.068670   31.555686
C       5.000039   23.547969   31.557145
C       5.000039   26.027269   31.555686
C       5.000039   21.068672   32.991764
C       5.000039   23.547969   32.990305
C       5.000039   26.027267   32.991764
H       5.000039   18.878048   33.157725
H       5.000039   28.217939   33.157726
C       5.000039   19.830241   33.711269
C       5.000039   22.308172   33.708059
C       5.000039   24.787767   33.708059
C       5.000039   27.265702   33.711268
C       5.000039   19.830240   35.139308
C       5.000039   22.308172   35.142512
C       5.000039   24.787767   35.142512
C       5.000039   27.265703   35.139309
H       5.000039   18.878049   35.692921
H       5.000039   28.217937   35.692920
C       5.000039   21.068668   35.858815
C       5.000039   23.547969   35.860273
C       5.000039   26.027271   35.858815
C       5.000039   21.068669   37.294935
C       5.000039   23.547969   37.293475
C       5.000039   26.027270   37.294935
H       5.000039   18.878049   37.460850
H       5.000039   28.217938   37.460851
C       5.000039   19.830243   38.014413
C       5.000039   22.308173   38.011206
C       5.000039   24.787766   38.011206
C       5.000039   27.265700   38.014412
C       5.000039   19.830243   39.442503
C       5.000039   22.308173   39.445715
C       5.000039   24.787766   39.445715
C       5.000039   27.265700   39.442504
H       5.000039   18.878048   39.996051
H       5.000039   28.217939   39.996050
C       5.000039   21.068670   40.162027
C       5.000039   23.547969   40.163487
C       5.000039   26.027269   40.162027
C       5.000039   21.068664   41.598092
C       5.000039   23.547969   41.596635
C       5.000039   26.027275   41.598092
H       5.000039   18.878048   41.764037
H       5.000039   28.217939   41.764038
C       5.000039   19.830243   42.317588
C       5.000039   22.308175   42.314385
C       5.000039   24.787764   42.314385
C       5.000039   27.265699   42.317587
C       5.000039   19.830250   43.745701
C       5.000039   22.308173   43.748906
C       5.000039   24.787766   43.748906
C       5.000039   27.265693   43.745702
H       5.000039   18.878048   44.299238
H       5.000039   28.217939   44.299237
C       5.000039   21.068663   44.465132
C       5.000039   23.547969   44.466601
C       5.000039   26.027276   44.465132
C       5.000039   21.068658   45.901283
C       5.000039   23.547969   45.899812
C       5.000039   26.027281   45.901283
H       5.000039   18.878050   46.067168
H       5.000039   28.217937   46.067169
C       5.000039   19.830243   46.620717
C       5.000039   22.308177   46.617534
C       5.000039   24.787762   46.617534
C       5.000039   27.265700   46.620716
C       5.000039   19.830329   48.048876
C       5.000039   22.308175   48.052057
C       5.000039   24.787764   48.052057
C       5.000039   27.265613   48.048877
H       5.000039   18.878038   48.602375
H       5.000039   28.217949   48.602374
C       5.000039   21.068628   48.768129
C       5.000039   23.547970   48.769654
C       5.000039   26.027311   48.768129
C       5.000039   21.067945   50.204685
C       5.000039   23.547969   50.203105
C       5.000039   26.027994   50.204685
H       5.000039   18.878467   50.370202
H       5.000039   28.217520   50.370203
C       5.000039   19.831639   50.922390
C       5.000039   22.308484   50.920894
C       5.000039   24.787455   50.920894
C       5.000039   27.264304   50.922389
H       5.000039   14.872446   51.253430
H       5.000039   17.350758   51.253705
H       5.000039   29.745183   51.253706
H       5.000039   32.223543   51.253430
C       5.000039   14.870752   52.356509
C       5.000039   17.352179   52.357113
C       5.000039   19.830634   52.352401
C       5.000039   22.308343   52.355088
C       5.000039   24.787596   52.355088
C       5.000039   27.265306   52.352401
C       5.000039   29.743764   52.357114
C       5.000039   32.225237   52.356508
H       5.000039   12.681137   52.521463
H       5.000039   34.414850   52.521463
C       5.000039   13.634608   53.072742
C       5.000039   16.111630   53.070652
C       5.000039   18.587520   53.071176
C       5.000039   21.069516   53.072222
C       5.000039   23.547969   53.072786
C       5.000039   26.026423   53.072222
C       5.000039   28.508420   53.071176
C       5.000039   30.984358   53.070652
C       5.000039   33.461385   53.072742
C       5.000039   13.634037   54.505028
C       5.000039   16.111646   54.507086
C       5.000039   18.590335   54.507251
C       5.000039   21.069723   54.506794
C       5.000039   23.547969   54.506278
C       5.000039   26.026217   54.506794
C       5.000039   28.505604   54.507251
C       5.000039   30.984340   54.507087
C       5.000039   33.461956   54.505028
H       5.000039   12.681236   55.057125
H       5.000039   34.414751   55.057125
C       5.000039   14.871031   55.222357
C       5.000039   17.351281   55.223682
C       5.000039   19.829554   55.224204
C       5.000039   22.308202   55.223722
C       5.000039   24.787737   55.223722
C       5.000039   27.266387   55.224204
C       5.000039   29.744662   55.223681
C       5.000039   32.224959   55.222356
C       5.000039   14.871551   56.659777
C       5.000039   17.351648   56.658532
C       5.000039   19.829857   56.658014
C       5.000039   22.308418   56.658497
C       5.000039   24.787521   56.658497
C       5.000039   27.266084   56.658014
C       5.000039   29.744295   56.658532
C       5.000039   32.224438   56.659777
H       5.000039   12.681226   56.825096
H       5.000039   34.414762   56.825095
C       5.000039   13.633759   57.378218
C       5.000039   16.111281   57.375512
C       5.000039   18.590099   57.375095
C       5.000039   21.069467   57.375386
C       5.000039   23.547970   57.375612
C       5.000039   26.026472   57.375386
C       5.000039   28.505840   57.375095
C       5.000039   30.984705   57.375511
C       5.000039   33.462234   57.378218
C       5.000039   13.633694   58.807193
C       5.000039   16.111342   58.809894
C       5.000039   18.590361   58.810318
C       5.000039   21.069483   58.810023
C       5.000039   23.547970   58.809796
C       5.000039   26.026456   58.810023
C       5.000039   28.505579   58.810318
C       5.000039   30.984645   58.809895
C       5.000039   33.462298   58.807192
H       5.000039   12.681225   59.360313
H       5.000039   34.414762   59.360313
C       5.000039   14.871549   59.525807
C       5.000039   17.351511   59.527078
C       5.000039   19.829726   59.527138
C       5.000039   22.308410   59.526845
C       5.000039   24.787529   59.526845
C       5.000039   27.266215   59.527138
C       5.000039   29.744432   59.527077
C       5.000039   32.224440   59.525807
